testData/tamu2000/pfcases_100_zone2326/Equ_tx2000_hr_4696_mod_v23_zone23_26_pslf.raw
0  100.000 
THIS IS A SYNTHETIC POWER SYSTEM MODEL THAT DOES NOT REPRESE
DATA RESEARCH PROJECT AND CONTAINS NO CEII.
1012,  1,  -2.412,  -11.128,  0.000,  0.000,  1,  1.02985,  -95.0586,  'SANDERSO',  115.00,  9
1033,  1,  87.620,  -65.560,  0.000,  0.000,  1,  1.01211,  -79.2176,  'MCCAMEY ',  230.00,  9
1046,  1,  4.769,  -7.162,  0.000,  0.000,  1,  1.02990,  -94.3721,  'OZONA 0 ',  115.00,  9
1048,  2,  147.970,  26.070,  0.000,  0.000,  1,  1.00000,  -48.0888,  'MONAHANS',  18.000,  9
1049,  2,  102.654,  32.328,  0.000,  0.000,  1,  1.00000,  -37.6119,  'MONAHANS',  18.000,  9
1053,  2,  85.156,  -10.835,  0.000,  0.000,  1,  1.00000,  -68.5377,  'MONAHANS',  230.00,  9
1072,  3,  102.221,  17.029,  0.000,  0.000,  1,  1.01000,  -59.3574,  'ODESSA 1',  18.000,  9
1073,  2,  63.153,  8.094,  0.000,  0.000,  1,  1.01000,  -61.1615,  'ODESSA 1',  18.000,  9
1074,  2,  65.211,  11.527,  0.000,  0.000,  1,  1.01000,  -61.6690,  'ODESSA 1',  18.000,  9
1075,  2,  78.863,  12.352,  0.000,  0.000,  1,  1.01000,  -64.0249,  'ODESSA 1',  18.000,  9
1076,  2,  172.593,  5.564,  0.000,  0.000,  1,  1.01000,  -68.7699,  'ODESSA 1',  18.000,  9
1077,  2,  67.122,  11.057,  0.000,  0.000,  1,  1.01000,  -62.0610,  'ODESSA 1',  18.000,  9
1081,  2,  166.308,  -41.064,  0.000,  0.000,  1,  1.01000,  -73.3716,  'ODESSA 1',  230.00,  9
2004,  2,  144.859,  -11.216,  0.000,  0.000,  2,  1.02000,  -82.2999,  'SAVOY 2 ',  13.800,  11
2005,  2,  125.311,  -9.864,  0.000,  0.000,  2,  1.02000,  -82.1392,  'SAVOY 3 ',  13.800,  11
2006,  2,  83.649,  -5.384,  0.000,  0.000,  2,  1.02000,  -81.5150,  'SAVOY 4 ',  13.800,  11
2013,  2,  9.122,  -5.905,  0.000,  0.000,  2,  1.03103,  -83.4412,  'PANHANDL',  18.000,  10
2024,  2,  110.976,  0.341,  0.000,  0.000,  2,  1.02000,  -79.3950,  'PARIS 2 ',  13.800,  11
2057,  3,  257.877,  -27.453,  0.000,  0.000,  2,  0.99000,  -74.9155,  'WICHITA ',  18.000,  11
2071,  2,  33.465,  -3.650,  0.000,  0.000,  2,  1.00000,  -80.2876,  'ARCHER 2',  18.000,  11
2100,  2,  44.860,  3.575,  0.000,  0.000,  2,  1.02118,  -83.5462,  'RALLS 1 ',  18.000,  10
2103,  2,  191.239,  -14.179,  0.000,  0.000,  2,  1.01692,  -83.6512,  'SHERMAN ',  20.000,  11
2104,  2,  145.168,  -10.263,  0.000,  0.000,  2,  1.01577,  -83.4778,  'SHERMAN ',  20.000,  11
2105,  2,  86.980,  -7.780,  0.000,  0.000,  2,  1.01311,  -83.0484,  'SHERMAN ',  20.000,  11
2115,  2,  84.162,  -2.224,  0.000,  0.000,  2,  1.00994,  -77.2646,  'PARIS 1 ',  13.800,  11
2116,  2,  132.349,  -0.884,  0.000,  0.000,  2,  1.01423,  -78.9080,  'PARIS 1 ',  13.800,  11
2117,  2,  78.488,  -1.714,  0.000,  0.000,  2,  1.00754,  -76.7207,  'PARIS 1 ',  13.800,  11
2118,  2,  77.611,  -1.776,  0.000,  0.000,  2,  1.00632,  -76.2878,  'PARIS 1 ',  13.800,  11
2119,  2,  108.961,  -1.192,  0.000,  0.000,  2,  1.01322,  -78.5214,  'PARIS 1 ',  13.800,  11
2120,  2,  80.116,  -1.172,  0.000,  0.000,  2,  1.01000,  -76.4760,  'PARIS 1 ',  13.800,  11
2127,  2,  168.655,  -165.031,  0.000,  0.000,  2,  1.04000,  -84.0383,  'MIAMI 0 ',  500.00,  10
3001,  1,  0.000,  0.000,  0.000,  0.000,  3,  0.95492,  -93.3083,  'KERRVILL',  230.00,  28
3002,  1,  0.000,  0.000,  0.000,  0.000,  3,  0.92967,  -98.1755,  'KERRVILL',  115.00,  28
3005,  1,  0.000,  0.000,  0.000,  0.000,  3,  0.84236,  -115.7961,  'LEAKEY 0',  115.00,  28
3008,  1,  65.499,  -9.607,  0.000,  0.000,  3,  1.01581,  -98.6466,  'COLEMAN ',  115.00,  27
3009,  1,  0.000,  0.000,  0.000,  0.000,  3,  1.02813,  -98.3036,  'SONORA 0',  115.00,  28
3010,  1,  0.000,  0.000,  0.000,  0.000,  3,  0.86327,  -117.6020,  'CAMP WOO',  115.00,  28
3011,  1,  0.000,  0.000,  0.000,  0.000,  3,  0.87229,  -106.5834,  'LLANO 0 ',  115.00,  28
3012,  1,  0.000,  0.000,  0.000,  0.000,  3,  0.85199,  -108.7538,  'WILLOW C',  115.00,  28
3014,  1,  0.000,  0.000,  0.000,  0.000,  3,  0.98083,  -91.3480,  'KINGSLAN',  115.00,  28
3018,  1,  9.441,  -25.906,  0.000,  0.000,  3,  1.02820,  -94.4687,  'CHRISTOV',  230.00,  27
3019,  1,  149.577,  -19.933,  0.000,  0.000,  3,  1.02990,  -96.2639,  'CHRISTOV',  115.00,  27
3024,  1,  0.000,  0.000,  0.000,  0.000,  3,  1.02758,  -97.2012,  'ELDORADO',  115.00,  28
3025,  1,  0.000,  0.000,  0.000,  0.000,  3,  1.00510,  -94.5156,  'SAN SABA',  115.00,  28
3028,  2,  91.851,  -2.208,  0.000,  0.000,  3,  1.04000,  -85.3264,  'ABILENE ',  18.000,  27
3029,  1,  0.000,  0.000,  0.000,  0.000,  3,  1.01079,  -90.7653,  'LOMETA 0',  115.00,  28
3035,  1,  0.000,  0.000,  0.000,  0.000,  3,  1.00496,  -96.9919,  'CHEROKEE',  115.00,  28
3036,  1,  0.000,  0.000,  0.000,  0.000,  3,  1.00945,  -97.8660,  'RICHLAND',  115.00,  28
3045,  2,  77.036,  4.445,  0.000,  0.000,  3,  1.04000,  -72.8970,  'SILVER 4',  13.800,  27
3048,  1,  560.344,  -470.078,  0.000,  0.000,  3,  1.03988,  -83.4879,  'ROSCOE 5',  500.00,  27
3050,  1,  0.235,  -67.882,  0.000,  0.000,  3,  1.02175,  -96.7506,  'DEL RIO ',  230.00,  28
3051,  1,  0.038,  -20.511,  0.000,  0.000,  3,  1.01251,  -99.3604,  'DEL RIO ',  115.00,  28
3052,  1,  0.000,  0.000,  0.000,  0.000,  3,  0.87735,  -109.3743,  'HUNT 0  ',  115.00,  28
3066,  1,  0.000,  0.000,  0.000,  0.000,  3,  1.00740,  -100.2735,  'BRADY 0 ',  115.00,  28
3073,  1,  0.000,  0.000,  0.000,  0.000,  3,  0.86503,  -121.7491,  'BRACKETT',  115.00,  28
3074,  1,  -1.564,  -21.260,  0.000,  0.000,  3,  0.87928,  -121.7035,  'BRACKETT',  13.800,  28
3075,  1,  0.000,  0.000,  0.000,  0.000,  3,  1.01174,  -103.3219,  'MASON 0 ',  115.00,  28
3076,  1,  0.000,  0.000,  0.000,  0.000,  3,  0.86254,  -120.4890,  'BRACKETT',  115.00,  28
3093,  1,  0.000,  0.000,  0.000,  0.000,  3,  0.86584,  -114.7754,  'ROCKSPRI',  115.00,  28
3101,  1,  0.000,  0.000,  0.000,  0.000,  3,  1.00586,  -89.0874,  'BUCHANAN',  115.00,  28
3104,  1,  0.000,  0.000,  0.000,  0.000,  3,  1.00764,  -86.3976,  'BUCHANAN',  115.00,  28
3105,  1,  -12.681,  0.740,  0.000,  0.000,  3,  1.00819,  -85.4624,  'BUCHANAN',  13.200,  28
3106,  3,  0.000,  0.000,  0.000,  0.000,  3,  1.00000,  -79.3914,  'BUCHANAN',  13.200,  28
3107,  1,  0.000,  0.000,  0.000,  0.000,  3,  0.89994,  -103.2243,  'INGRAM 0',  115.00,  28
3108,  1,  0.000,  0.000,  0.000,  0.000,  3,  0.99742,  -92.0190,  'KEMPNER ',  115.00,  28
3119,  1,  0.000,  0.000,  0.000,  0.000,  3,  0.92610,  -116.7137,  'BRACKETT',  115.00,  28
3120,  1,  -6.389,  0.000,  0.000,  0.000,  3,  0.92625,  -116.3262,  'BRACKETT',  13.800,  28
3123,  1,  0.000,  0.000,  0.000,  0.000,  3,  0.83585,  -123.6916,  'UVALDE 0',  115.00,  28
3124,  1,  0.127,  -38.273,  0.000,  0.000,  3,  0.92184,  -101.3560,  'FREDERIC',  115.00,  28
3126,  1,  -0.074,  -32.030,  0.000,  0.000,  3,  0.84257,  -119.8989,  'SABINAL ',  115.00,  28
3132,  1,  0.000,  0.000,  0.000,  0.000,  3,  1.01123,  -102.6962,  'EDEN 0  ',  115.00,  28
3138,  1,  0.000,  0.000,  0.000,  0.000,  3,  1.02381,  -102.7119,  'MENARD 0',  115.00,  28
3142,  1,  78.562,  -33.447,  0.000,  0.000,  3,  1.02992,  -102.8764,  'GOODFELL',  115.00,  27
3143,  1,  0.000,  -17.821,  0.000,  0.000,  3,  1.02381,  -100.5890,  'SANTA AN',  115.00,  28
3144,  1,  0.000,  0.000,  0.000,  0.000,  3,  1.01636,  -101.7929,  'ROWENA 0',  115.00,  28
3146,  1,  0.000,  -9.097,  0.000,  0.000,  3,  1.02991,  -100.9012,  'JUNCTION',  115.00,  28
3147,  1,  0.002,  -36.019,  0.000,  0.000,  3,  1.01440,  -92.0727,  'LAMPASAS',  115.00,  28
4002,  1,  0.000,  0.000,  0.000,  0.000,  4,  0.90126,  -118.8051,  'LAUGHLIN',  115.00,  20
4004,  1,  0.000,  0.000,  0.000,  0.000,  4,  0.99709,  -114.2729,  'LAREDO 7',  230.00,  20
4005,  1,  0.011,  -69.161,  0.000,  0.000,  4,  0.99376,  -117.7307,  'LAREDO 7',  115.00,  20
4006,  1,  0.000,  0.000,  0.000,  0.000,  4,  1.02492,  -112.6072,  'BRUNI 2 ',  115.00,  20
4008,  1,  0.000,  0.000,  0.000,  0.000,  4,  0.98271,  -92.7555,  'POTEET 0',  115.00,  20
4011,  1,  45.048,  -2.271,  0.000,  0.000,  4,  1.00936,  -117.4314,  'HEBBRONV',  115.00,  19
4014,  1,  0.000,  0.000,  0.000,  0.000,  4,  0.98418,  -110.3883,  'EAGLE PA',  230.00,  20
4015,  1,  0.103,  -72.827,  0.000,  0.000,  4,  0.98508,  -112.5185,  'EAGLE PA',  115.00,  20
4016,  1,  0.000,  0.000,  0.000,  0.000,  4,  0.98853,  -92.2336,  'CHARLOTT',  115.00,  20
4022,  1,  0.000,  0.000,  0.000,  0.000,  4,  0.96567,  -115.3830,  'ENCINAL ',  115.00,  20
4023,  1,  0.000,  0.000,  0.000,  0.000,  4,  0.98884,  -92.1691,  'MOORE 0 ',  115.00,  20
4024,  1,  0.000,  0.000,  0.000,  0.000,  4,  0.99856,  -89.1065,  'CHRISTIN',  230.00,  20
4025,  1,  0.000,  0.000,  0.000,  0.000,  4,  0.99365,  -91.1381,  'CHRISTIN',  115.00,  20
4026,  2,  0.000,  0.000,  0.000,  0.000,  4,  1.03000,  -84.7339,  'CHRISTIN',  13.800,  20
4029,  1,  15.711,  7.713,  0.000,  0.000,  4,  0.98217,  -80.7160,  'FANNIN 1',  115.00,  21
4030,  3,  -5.849,  1.801,  0.000,  0.000,  4,  1.01000,  -77.0580,  'FANNIN 2',  13.800,  21
4031,  1,  0.000,  0.000,  0.000,  0.000,  4,  0.99964,  -118.0640,  'SAN YGNA',  115.00,  20
4033,  1,  0.000,  0.000,  0.000,  0.000,  4,  0.99136,  -117.5393,  'LAREDO 6',  115.00,  20
4036,  1,  0.000,  0.000,  0.000,  0.000,  4,  0.92774,  -105.9143,  'CRYSTAL ',  115.00,  20
4043,  1,  56.443,  -1.885,  0.000,  0.000,  4,  0.99760,  -122.7974,  'FALCON H',  115.00,  19
4047,  2,  24.617,  -0.124,  0.000,  0.000,  4,  1.02000,  -120.2802,  'FALCON H',  13.800,  19
4058,  2,  38.843,  14.198,  0.000,  0.000,  4,  1.03000,  -97.2515,  'GREGORY ',  13.800,  21
4059,  2,  45.785,  15.636,  0.000,  0.000,  4,  1.03000,  -97.7875,  'GREGORY ',  13.800,  21
4060,  2,  35.935,  12.721,  0.000,  0.000,  4,  1.03000,  -95.7707,  'GREGORY ',  13.800,  21
4061,  2,  40.273,  15.163,  0.000,  0.000,  4,  1.03000,  -95.8900,  'GREGORY ',  13.800,  21
4062,  2,  43.081,  14.957,  0.000,  0.000,  4,  1.03000,  -94.7284,  'GREGORY ',  13.800,  21
4063,  2,  39.476,  15.472,  0.000,  0.000,  4,  1.03000,  -95.7929,  'GREGORY ',  13.800,  21
4073,  1,  2164.580,  -409.210,  0.000,  0.000,  4,  0.99456,  -129.3438,  'MISSION ',  230.00,  19
4082,  2,  39.034,  8.795,  0.000,  0.000,  4,  1.04000,  -102.4139,  'CORPUS C',  13.800,  21
4083,  2,  41.776,  9.219,  0.000,  0.000,  4,  1.04000,  -102.9409,  'CORPUS C',  13.800,  21
4084,  2,  68.369,  12.908,  0.000,  0.000,  4,  1.04000,  -105.7282,  'CORPUS C',  13.800,  21
4085,  2,  86.254,  14.496,  0.000,  0.000,  4,  1.04000,  -104.9363,  'CORPUS C',  13.800,  21
4101,  1,  0.000,  0.000,  0.000,  0.000,  4,  0.99297,  -117.7168,  'LAREDO 3',  115.00,  20
4105,  2,  167.482,  26.400,  0.000,  0.000,  4,  0.99096,  -109.1383,  'TAFT 2 1',  18.000,  21
4113,  1,  0.000,  0.000,  0.000,  0.000,  4,  1.00728,  -114.5806,  'LAREDO 1',  230.00,  20
4114,  1,  0.000,  0.000,  0.000,  0.000,  4,  0.99783,  -116.5233,  'LAREDO 1',  115.00,  20
4115,  2,  0.000,  0.000,  0.000,  0.000,  4,  1.04000,  -113.4462,  'LAREDO 1',  13.800,  20
4116,  2,  0.000,  0.000,  0.000,  0.000,  4,  1.04000,  -113.4032,  'LAREDO 1',  13.800,  20
4117,  1,  0.000,  0.000,  0.000,  0.000,  4,  0.98987,  -92.0340,  'JOURDANT',  115.00,  20
4118,  1,  83.773,  -2.305,  0.000,  0.000,  4,  0.94889,  -120.5015,  'GEORGE W',  115.00,  21
4125,  1,  61.340,  15.956,  0.000,  0.000,  4,  0.93988,  -93.6350,  'PETTUS 0',  115.00,  21
4129,  1,  0.000,  0.000,  0.000,  0.000,  4,  1.01910,  -123.9547,  'PREMONT ',  115.00,  20
4130,  1,  -0.002,  -25.748,  0.000,  0.000,  4,  1.01464,  -124.7474,  'FREER 0 ',  115.00,  20
4131,  1,  0.632,  -104.662,  0.000,  0.000,  4,  0.96766,  -98.1749,  'PEARSALL',  230.00,  20
4132,  1,  0.000,  0.000,  0.000,  0.000,  4,  0.95721,  -100.0509,  'PEARSALL',  115.00,  20
4133,  2,  0.000,  0.000,  0.000,  0.000,  4,  0.96766,  -98.1749,  'PEARSALL',  20.000,  20
4134,  2,  0.000,  0.000,  0.000,  0.000,  4,  0.96766,  -98.1749,  'PEARSALL',  20.000,  20
4135,  2,  0.000,  0.000,  0.000,  0.000,  4,  0.96766,  -98.1749,  'PEARSALL',  20.000,  20
4136,  2,  0.000,  0.000,  0.000,  0.000,  4,  0.96766,  -98.1749,  'PEARSALL',  20.000,  20
4137,  2,  0.000,  0.000,  0.000,  0.000,  4,  0.96766,  -98.1749,  'PEARSALL',  20.000,  20
4138,  2,  0.000,  0.000,  0.000,  0.000,  4,  0.96766,  -98.1749,  'PEARSALL',  20.000,  20
4140,  1,  373.503,  -148.113,  0.000,  0.000,  4,  1.01212,  -115.8133,  'SARITA 1',  230.00,  21
4143,  1,  0.000,  0.000,  0.000,  0.000,  4,  0.93921,  -103.8558,  'DILLEY 0',  115.00,  20
4146,  1,  1.038,  0.000,  0.000,  0.000,  4,  0.99974,  -113.2293,  'LAREDO 4',  230.00,  20
4147,  1,  0.155,  -100.596,  0.000,  0.000,  4,  1.00282,  -115.5580,  'LAREDO 4',  115.00,  20
4148,  1,  0.000,  0.000,  0.000,  0.000,  4,  0.96458,  -123.0735,  'THREE RI',  115.00,  20
4160,  2,  147.804,  51.136,  0.000,  0.000,  4,  1.02413,  -102.0426,  'CORPUS C',  13.800,  21
4161,  2,  67.209,  24.936,  0.000,  0.000,  4,  1.03000,  -98.7281,  'CORPUS C',  13.800,  21
4162,  2,  68.320,  23.678,  0.000,  0.000,  4,  1.03000,  -98.8211,  'CORPUS C',  13.800,  21
4172,  1,  0.000,  0.000,  0.000,  0.000,  4,  0.98064,  -94.1075,  'PLEASANT',  115.00,  20
4174,  1,  0.001,  -87.245,  0.000,  0.000,  4,  1.01302,  -92.1345,  'LYTLE 0 ',  115.00,  20
4175,  1,  -0.002,  -31.378,  0.000,  0.000,  4,  1.02253,  -119.7388,  'LAREDO 2',  115.00,  20
4176,  1,  0.000,  0.000,  0.000,  0.000,  4,  1.03028,  -121.4946,  'BRUNI 1 ',  115.00,  20
4177,  1,  -2.350,  -17.497,  0.000,  0.000,  4,  1.03983,  -121.4486,  'BRUNI 1 ',  13.800,  20
4178,  1,  82.465,  -34.254,  0.000,  0.000,  4,  0.95646,  -96.7001,  'GOLIAD 0',  115.00,  21
4179,  1,  0.000,  0.000,  0.000,  0.000,  4,  0.99617,  -124.8198,  'SAN DIEG',  115.00,  20
4181,  2,  265.285,  55.276,  0.000,  0.000,  4,  0.99579,  -99.8514,  'TAFT 1 0',  230.00,  21
4187,  1,  0.000,  0.000,  0.000,  0.000,  4,  0.94341,  -112.7247,  'COTULLA ',  115.00,  20
4188,  1,  0.000,  0.000,  0.000,  0.000,  4,  0.95163,  -115.0397,  'QUEMADO ',  115.00,  20
4189,  1,  0.000,  0.000,  0.000,  0.000,  4,  0.92757,  -108.2286,  'CARRIZO ',  115.00,  20
4190,  1,  0.000,  0.000,  0.000,  0.000,  4,  0.99265,  -117.2660,  'LAREDO 5',  115.00,  20
4192,  2,  984.466,  137.977,  0.000,  0.000,  4,  1.02000,  -117.1055,  'BROWNSVI',  230.00,  19
4195,  1,  -0.790,  -19.600,  0.000,  0.000,  4,  0.99969,  -102.7714,  'OILTON 0',  500.00,  20
4196,  1,  0.058,  -204.140,  0.000,  0.000,  4,  1.01013,  -106.8711,  'OILTON 1',  230.00,  20
4197,  1,  -0.238,  -94.569,  0.000,  0.000,  4,  1.02984,  -110.7909,  'OILTON 2',  115.00,  20
5005,  1,  0.000,  0.000,  0.000,  0.000,  5,  0.95179,  -96.0653,  'LIPAN 0 ',  161.00,  18
5011,  1,  0.000,  0.000,  0.000,  0.000,  5,  0.85668,  -98.9231,  'THORNTON',  161.00,  13
5021,  1,  1581.700,  -85.423,  0.000,  0.000,  5,  1.01830,  -85.8084,  'ALEDO 1 ',  500.00,  17
5024,  1,  0.684,  0.000,  0.000,  0.000,  5,  0.88505,  -98.0711,  'GATESVIL',  161.00,  13
5025,  1,  0.000,  0.000,  0.000,  0.000,  5,  1.01157,  -87.5442,  'CLEBURNE',  161.00,  18
5029,  1,  0.000,  0.000,  0.000,  0.000,  5,  0.94690,  -89.9514,  'TROY 0  ',  161.00,  13
5037,  2,  247.124,  15.881,  0.000,  0.000,  5,  1.02000,  -83.1238,  'DALLAS 1',  13.200,  16
5038,  2,  239.788,  16.119,  0.000,  0.000,  5,  1.02000,  -83.0575,  'DALLAS 1',  13.200,  16
5039,  2,  561.080,  19.117,  0.000,  0.000,  5,  1.02000,  -84.2523,  'DALLAS 1',  13.200,  16
5040,  2,  184.207,  13.246,  0.000,  0.000,  5,  1.02000,  -82.3979,  'DALLAS 1',  13.200,  16
5041,  2,  262.923,  14.611,  0.000,  0.000,  5,  1.02000,  -83.2495,  'DALLAS 1',  13.200,  16
5042,  2,  223.136,  15.911,  0.000,  0.000,  5,  1.02000,  -82.9045,  'DALLAS 1',  13.200,  16
5045,  1,  0.000,  0.000,  0.000,  0.000,  5,  1.02733,  -83.0833,  'STEPHENV',  500.00,  18
5046,  1,  0.000,  0.000,  0.000,  0.000,  5,  1.01259,  -85.5991,  'STEPHENV',  161.00,  18
5047,  1,  756.653,  -27.036,  0.000,  0.000,  5,  1.01470,  -83.0372,  'MANSFIEL',  500.00,  17
5054,  1,  212.355,  51.935,  0.000,  0.000,  5,  0.81711,  -104.3612,  'GROESBEC',  161.00,  14
5057,  2,  116.048,  -12.830,  0.000,  0.000,  5,  1.01508,  -79.6895,  'GRAHAM 2',  13.800,  12
5058,  2,  83.490,  -8.152,  0.000,  0.000,  5,  1.01226,  -78.6162,  'GRAHAM 3',  13.800,  12
5063,  1,  3518.277,  -281.579,  0.000,  0.000,  5,  1.02434,  -85.4379,  'ARLINGTO',  500.00,  17
5067,  2,  0.000,  0.000,  0.000,  0.000,  5,  1.03000,  -82.8797,  'ARLINGTO',  13.800,  17
5068,  2,  0.000,  0.000,  0.000,  0.000,  5,  1.03000,  -82.7526,  'ARLINGTO',  13.800,  17
5069,  2,  0.000,  0.000,  0.000,  0.000,  5,  1.03000,  -82.5818,  'ARLINGTO',  13.800,  17
5071,  1,  0.000,  0.000,  0.000,  0.000,  5,  0.97387,  -87.7846,  'WACO 3 0',  161.00,  13
5075,  1,  0.000,  0.000,  0.000,  0.000,  5,  0.92694,  -94.3642,  'EVANT 0 ',  161.00,  18
5079,  1,  0.000,  0.000,  0.000,  0.000,  5,  0.97405,  -89.5106,  'WACO 4 0',  161.00,  13
5080,  1,  0.000,  0.000,  0.000,  0.000,  5,  0.92608,  -93.6730,  'LORENA 0',  161.00,  13
5081,  1,  0.000,  0.000,  0.000,  0.000,  5,  0.98467,  -88.2035,  'FORT HOO',  161.00,  13
5088,  1,  0.000,  0.000,  0.000,  0.000,  5,  0.95403,  -93.0884,  'CLIFTON ',  161.00,  18
5089,  2,  0.000,  0.000,  0.000,  0.000,  5,  0.99967,  -91.1995,  'CLIFTON ',  13.800,  18
5101,  1,  96.181,  -6.906,  0.000,  0.000,  5,  0.94234,  -98.3492,  'COMANCHE',  161.00,  15
5112,  1,  0.000,  0.000,  0.000,  0.000,  5,  0.94106,  -94.4726,  'HICO 0  ',  161.00,  18
5120,  1,  153.310,  -26.344,  0.000,  0.000,  5,  1.03279,  -84.1571,  'BROWNWOO',  500.00,  15
5123,  1,  0.000,  0.000,  0.000,  0.000,  5,  0.84724,  -99.1971,  'MARLIN 0',  161.00,  13
5124,  1,  0.000,  0.000,  0.000,  0.000,  5,  0.85843,  -97.0912,  'MARLIN 1',  115.00,  13
5127,  1,  0.000,  0.000,  0.000,  0.000,  5,  0.91126,  -97.8966,  'JONESBOR',  161.00,  18
5129,  1,  0.000,  0.000,  0.000,  0.000,  5,  0.96679,  -94.1083,  'GOLDTHWA',  161.00,  18
5131,  1,  0.000,  0.000,  0.000,  0.000,  5,  1.00646,  -83.3124,  'BELTON 0',  500.00,  13
5132,  1,  0.000,  0.000,  0.000,  0.000,  5,  0.99465,  -85.8312,  'BELTON 1',  161.00,  13
5133,  1,  0.000,  0.000,  0.000,  0.000,  5,  0.93722,  -96.7808,  'TOLAR 0 ',  161.00,  18
5137,  1,  0.000,  0.000,  0.000,  0.000,  5,  0.98972,  -85.9601,  'WACO 1 0',  500.00,  13
5138,  1,  0.000,  0.000,  0.000,  0.000,  5,  0.98069,  -87.9862,  'WACO 1 1',  161.00,  13
5140,  1,  0.000,  0.000,  0.000,  0.000,  5,  0.87755,  -99.0411,  'GATESVIL',  161.00,  13
5142,  1,  0.000,  0.000,  0.000,  0.000,  5,  0.92458,  -93.1521,  'MOODY 0 ',  161.00,  13
5144,  1,  0.000,  0.000,  0.000,  0.000,  5,  0.94291,  -91.3602,  'WACO 6 0',  161.00,  13
5151,  1,  0.000,  0.000,  0.000,  0.000,  5,  0.93365,  -95.7523,  'MORGAN 0',  161.00,  18
5154,  1,  0.000,  0.000,  0.000,  0.000,  5,  0.93421,  -95.2660,  'RIO VIST',  161.00,  18
5159,  1,  0.678,  0.001,  0.000,  0.000,  5,  0.83906,  -100.1749,  'ROSEBUD ',  161.00,  13
5162,  1,  297.639,  69.280,  0.000,  0.000,  5,  0.79066,  -107.1236,  'AXTELL 0',  161.00,  14
...
 0 /End of Bus data, Begin Generator data
1048,  '1',  325.200,  60.382,  165.530,  -36.100,  1.00000,  0,  390.240,  0.00000,  0.10170,  0.00000,  0.00000,  1.00000,  1,  100.0,  325.200,  97.560
1049,  '1',  325.200,  81.453,  165.530,  -36.100,  1.00000,  0,  390.240,  0.00000,  0.13490,  0.00000,  0.00000,  1.00000,  1,  100.0,  325.200,  97.560
1053,  '1',  128.740,  -6.923,  91.010,  -19.850,  1.00000,  0,  214.560,  0.00000,  0.16870,  0.00000,  0.00000,  1.00000,  1,  100.0,  178.800,  53.640
1072,  '1',  287.637,  32.730,  97.800,  -21.330,  1.01000,  0,  230.560,  0.00000,  0.30820,  0.00000,  0.00000,  1.00000,  1,  100.0,  192.130,  57.640
1073,  '1',  165.230,  11.165,  97.800,  -21.330,  1.01000,  0,  230.560,  0.00000,  0.19480,  0.00000,  0.00000,  1.00000,  1,  100.0,  192.130,  57.640
1074,  '1',  165.230,  19.788,  97.800,  -21.330,  1.01000,  0,  230.560,  0.00000,  0.20960,  0.00000,  0.00000,  1.00000,  1,  100.0,  192.130,  57.640
1075,  '1',  165.230,  20.469,  97.800,  -21.330,  1.01000,  0,  230.560,  0.00000,  0.12370,  0.00000,  0.00000,  1.00000,  1,  100.0,  192.130,  57.640
1076,  '1',  165.230,  28.519,  97.800,  -21.330,  1.01000,  0,  230.560,  0.00000,  0.10660,  0.00000,  0.00000,  1.00000,  1,  100.0,  192.130,  57.640
1077,  '1',  165.230,  18.407,  97.800,  -21.330,  1.01000,  0,  230.560,  0.00000,  0.15380,  0.00000,  0.00000,  1.00000,  1,  100.0,  192.130,  57.640
1081,  '1',  286.500,  15.209,  145.830,  -31.800,  1.01000,  0,  343.800,  0.00000,  0.14960,  0.00000,  0.00000,  1.00000,  1,  100.0,  286.500,  85.950
2004,  '1',  117.540,  -3.869,  199.430,  -43.490,  1.02000,  0,  470.160,  0.00000,  0.10640,  0.00000,  0.00000,  1.00000,  1,  100.0,  391.800,  117.540
2005,  '1',  117.540,  -3.757,  199.430,  -43.490,  1.02000,  0,  470.160,  0.00000,  0.22750,  0.00000,  0.00000,  1.00000,  1,  100.0,  391.800,  117.540
2006,  '1',  117.540,  -1.485,  199.430,  -43.490,  1.02000,  0,  470.160,  0.00000,  0.20040,  0.00000,  0.00000,  1.00000,  1,  100.0,  391.800,  117.540
2013,  '1',  35.480,  -28.890,  42.730,  -28.890,  1.00000,  0,  240.720,  0.00000,  1.00000,  0.00000,  0.00000,  1.00000,  1,  100.0,  200.600,  60.180
2024,  '1',  120.000,  7.849,  84.830,  -18.500,  1.02000,  0,  200.000,  0.00000,  0.15080,  0.00000,  0.00000,  1.00000,  1,  100.0,  166.670,  50.000
2057,  '1',  816.857,  -196.701,  335.520,  -87.840,  0.99000,  0,  864.000,  0.00000,  0.17700,  0.00000,  0.00000,  1.00000,  1,  100.0,  720.000,  216.000
2071,  '1',  36.523,  -19.760,  31.950,  -21.600,  1.00000,  0,  180.000,  0.00000,  1.00000,  0.00000,  0.00000,  1.00000,  1,  100.0,  150.000,  45.000
2100,  '1',  53.650,  -21.600,  31.950,  -21.600,  1.02000,  0,  180.000,  0.00000,  1.00000,  0.00000,  0.00000,  1.00000,  1,  100.0,  150.000,  45.000
2103,  '1',  80.320,  -29.720,  136.280,  -29.720,  1.00000,  0,  321.280,  0.00000,  0.33430,  0.00000,  0.00000,  1.00000,  1,  100.0,  267.730,  80.320
2104,  '1',  80.320,  -29.720,  136.280,  -29.720,  1.00000,  0,  321.280,  0.00000,  0.31470,  0.00000,  0.00000,  1.00000,  1,  100.0,  267.730,  80.320
2105,  '1',  80.320,  -29.720,  136.280,  -29.720,  1.00000,  0,  321.280,  0.00000,  0.14160,  0.00000,  0.00000,  1.00000,  1,  100.0,  267.730,  80.320
2115,  '1',  158.860,  -20.500,  94.020,  -20.500,  1.00000,  0,  221.660,  0.00000,  0.14250,  0.00000,  0.00000,  1.00000,  1,  100.0,  184.720,  55.410
2116,  '1',  158.860,  -20.500,  94.020,  -20.500,  1.00000,  0,  221.660,  0.00000,  0.18690,  0.00000,  0.00000,  1.00000,  1,  100.0,  184.720,  55.410
2117,  '1',  158.860,  -20.500,  94.020,  -20.500,  1.00000,  0,  221.660,  0.00000,  0.32540,  0.00000,  0.00000,  1.00000,  1,  100.0,  184.720,  55.410
2118,  '1',  158.860,  -20.500,  94.020,  -20.500,  1.00000,  0,  221.660,  0.00000,  0.10610,  0.00000,  0.00000,  1.00000,  1,  100.0,  184.720,  55.410
2119,  '1',  158.860,  -20.500,  94.020,  -20.500,  1.00000,  0,  221.660,  0.00000,  0.13600,  0.00000,  0.00000,  1.00000,  1,  100.0,  184.720,  55.410
2120,  '1',  158.860,  -14.298,  94.020,  -20.500,  1.01000,  0,  221.660,  0.00000,  0.20680,  0.00000,  0.00000,  1.00000,  1,  100.0,  184.720,  55.410
2127,  '1',  30.194,  36.522,  61.470,  -41.560,  1.04000,  0,  346.320,  0.00000,  1.00000,  0.00000,  0.00000,  1.00000,  1,  100.0,  288.600,  86.580
3028,  '1',  48.697,  18.416,  42.600,  -28.800,  1.04000,  0,  240.000,  0.00000,  1.00000,  0.00000,  0.00000,  1.00000,  1,  100.0,  200.000,  60.000
3045,  '1',  321.840,  30.972,  227.520,  -49.620,  1.04000,  0,  536.400,  0.00000,  0.14470,  0.00000,  0.00000,  1.00000,  1,  100.0,  447.000,  134.100
3106,  '1',  93.601,  -9.449,  62.477,  -2.690,  1.00000,  0,  65.880,  0.00000,  0.29220,  0.00000,  0.00000,  1.00000,  1,  100.0,  162.800,  0.000
4026,  '1',  237.800,  100.978,  191.060,  -50.020,  1.03000,  0,  492.000,  0.00000,  0.32770,  0.00000,  0.00000,  1.00000,  1,  100.0,  410.000,  123.000
4030,  '1',  148.030,  156.328,  290.040,  -75.930,  1.01000,  0,  746.880,  0.00000,  0.27970,  0.00000,  0.00000,  1.00000,  1,  100.0,  622.400,  186.720
4047,  '1',  55.769,  13.704,  75.102,  -3.230,  1.02000,  0,  79.200,  0.00000,  0.32270,  0.00000,  0.00000,  1.00000,  1,  100.0,  195.700,  0.000
4058,  '1',  103.680,  42.786,  73.300,  -15.980,  1.03000,  0,  172.800,  0.00000,  0.13700,  0.00000,  0.00000,  1.00000,  1,  100.0,  144.000,  43.200
4059,  '1',  103.680,  48.247,  73.300,  -15.980,  1.03000,  0,  172.800,  0.00000,  0.15140,  0.00000,  0.00000,  1.00000,  1,  100.0,  144.000,  43.200
4060,  '1',  103.680,  30.954,  73.300,  -15.980,  1.03000,  0,  172.800,  0.00000,  0.13940,  0.00000,  0.00000,  1.00000,  1,  100.0,  144.000,  43.200
4061,  '1',  148.200,  45.072,  87.720,  -19.130,  1.03000,  0,  206.800,  0.00000,  0.21560,  0.00000,  0.00000,  1.00000,  1,  100.0,  172.330,  51.700
4062,  '1',  148.200,  35.869,  87.720,  -19.130,  1.03000,  0,  206.800,  0.00000,  0.25930,  0.00000,  0.00000,  1.00000,  1,  100.0,  172.330,  51.700
4063,  '1',  148.200,  46.371,  87.720,  -19.130,  1.03000,  0,  206.800,  0.00000,  0.14410,  0.00000,  0.00000,  1.00000,  1,  100.0,  172.330,  51.700
4082,  '1',  243.400,  56.309,  123.890,  -27.020,  1.04000,  0,  292.080,  0.00000,  0.13810,  0.00000,  0.00000,  1.00000,  1,  100.0,  243.400,  73.020
4083,  '1',  243.400,  59.323,  123.890,  -27.020,  1.04000,  0,  292.080,  0.00000,  0.15700,  0.00000,  0.00000,  1.00000,  1,  100.0,  243.400,  73.020
4084,  '1',  243.400,  99.029,  123.890,  -27.020,  1.04000,  0,  292.080,  0.00000,  0.19110,  0.00000,  0.00000,  1.00000,  1,  100.0,  243.400,  73.020
4085,  '1',  352.000,  115.497,  179.170,  -39.070,  1.04000,  0,  422.400,  0.00000,  0.31920,  0.00000,  0.00000,  1.00000,  1,  100.0,  352.000,  105.600
4105,  '1',  43.827,  38.340,  38.340,  -25.920,  1.01000,  0,  216.000,  0.00000,  1.00000,  0.00000,  0.00000,  1.00000,  1,  100.0,  180.000,  54.000
4115,  '1',  39.540,  62.600,  67.090,  -14.630,  1.04000,  0,  158.160,  0.00000,  0.11310,  0.00000,  0.00000,  1.00000,  1,  100.0,  131.800,  39.540
4116,  '1',  39.540,  59.110,  67.090,  -14.630,  1.04000,  0,  158.160,  0.00000,  0.15150,  0.00000,  0.00000,  1.00000,  1,  100.0,  131.800,  39.540
4133,  '1',  0.000,  0.000,  17.100,  -3.730,  1.00000,  0,  40.320,  0.00000,  0.22730,  0.00000,  0.00000,  1.00000,  0,  100.0,  33.600,  10.080
4134,  '1',  0.000,  -3.730,  17.100,  -3.730,  1.00000,  0,  40.320,  0.00000,  0.18000,  0.00000,  0.00000,  1.00000,  0,  100.0,  33.600,  10.080
4135,  '1',  0.000,  -3.730,  17.100,  -3.730,  1.00000,  0,  40.320,  0.00000,  0.10840,  0.00000,  0.00000,  1.00000,  0,  100.0,  33.600,  10.080
4136,  '1',  0.000,  -3.730,  17.100,  -3.730,  1.00000,  0,  40.320,  0.00000,  0.18960,  0.00000,  0.00000,  1.00000,  0,  100.0,  33.600,  10.080
4137,  '1',  0.000,  0.000,  34.200,  -7.460,  1.00000,  0,  80.640,  0.00000,  0.27350,  0.00000,  0.00000,  1.00000,  0,  100.0,  67.200,  20.160
4138,  '1',  0.000,  0.000,  33.590,  -7.330,  1.00000,  0,  79.200,  0.00000,  0.16760,  0.00000,  0.00000,  1.00000,  0,  100.0,  66.000,  19.800
4160,  '1',  170.080,  100.660,  100.660,  -21.950,  1.03000,  0,  237.320,  0.00000,  0.18820,  0.00000,  0.00000,  1.00000,  1,  100.0,  197.770,  59.330
4161,  '1',  170.080,  57.435,  100.660,  -21.950,  1.03000,  0,  237.320,  0.00000,  0.12390,  0.00000,  0.00000,  1.00000,  1,  100.0,  197.770,  59.330
4162,  '1',  170.080,  54.278,  100.660,  -21.950,  1.03000,  0,  237.320,  0.00000,  0.17220,  0.00000,  0.00000,  1.00000,  1,  100.0,  197.770,  59.330
4181,  '1',  48.720,  42.620,  42.620,  -28.810,  1.04000,  0,  240.120,  0.00000,  1.00000,  0.00000,  0.00000,  1.00000,  1,  100.0,  200.100,  60.030
4192,  '1',  1275.120,  250.888,  688.320,  -150.120,  1.02000,  0,  1622.76,  0.00000,  0.14340,  0.00000,  0.00000,  1.00000,  1,  100.0,  1352.31,  405.690
5037,  '1',  308.470,  3.994,  157.010,  -34.240,  1.02000,  0,  370.160,  0.00000,  0.29910,  0.00000,  0.00000,  1.00000,  1,  100.0,  308.470,  92.540
5038,  '1',  308.470,  4.712,  157.010,  -34.240,  1.02000,  0,  370.160,  0.00000,  0.12330,  0.00000,  0.00000,  1.00000,  1,  100.0,  308.470,  92.540
5039,  '1',  308.470,  2.983,  157.010,  -34.240,  1.02000,  0,  370.160,  0.00000,  0.21470,  0.00000,  0.00000,  1.00000,  1,  100.0,  308.470,  92.540
5040,  '1',  308.470,  3.353,  157.010,  -34.240,  1.02000,  0,  370.160,  0.00000,  0.19240,  0.00000,  0.00000,  1.00000,  1,  100.0,  308.470,  92.540
5041,  '1',  308.470,  1.935,  157.010,  -34.240,  1.02000,  0,  370.160,  0.00000,  0.11590,  0.00000,  0.00000,  1.00000,  1,  100.0,  308.470,  92.540
5042,  '1',  308.470,  5.194,  157.010,  -34.240,  1.02000,  0,  370.160,  0.00000,  0.19130,  0.00000,  0.00000,  1.00000,  1,  100.0,  308.470,  92.540
5057,  '1',  317.350,  -35.230,  161.530,  -35.230,  1.00000,  0,  380.820,  0.00000,  0.19130,  0.00000,  0.00000,  1.00000,  1,  100.0,  317.350,  95.200
5058,  '1',  317.350,  -35.230,  161.530,  -35.230,  1.00000,  0,  380.820,  0.00000,  0.29820,  0.00000,  0.00000,  1.00000,  1,  100.0,  317.350,  95.200
5067,  '1',  438.270,  59.434,  223.080,  -48.650,  1.03000,  0,  525.920,  0.00000,  0.32610,  0.00000,  0.00000,  1.00000,  1,  100.0,  438.270,  131.480
5068,  '1',  438.270,  55.214,  223.080,  -48.650,  1.03000,  0,  525.920,  0.00000,  0.11690,  0.00000,  0.00000,  1.00000,  1,  100.0,  438.270,  131.480
5069,  '1',  438.270,  51.713,  223.080,  -48.650,  1.03000,  0,  525.920,  0.00000,  0.10560,  0.00000,  0.00000,  1.00000,  1,  100.0,  438.270,  131.480
5089,  '1',  35.308,  47.569,  47.569,  -2.050,  1.01000,  0,  50.160,  0.00000,  0.24100,  0.00000,  0.00000,  1.00000,  1,  100.0,  123.900,  0.000
5166,  '1',  91.080,  54.219,  64.390,  -14.040,  1.04000,  0,  151.800,  0.00000,  0.13910,  0.00000,  0.00000,  1.00000,  1,  100.0,  126.500,  37.950
5198,  '1',  36.523,  -21.600,  31.950,  -21.600,  1.00000,  0,  180.000,  0.00000,  1.00000,  0.00000,  0.00000,  1.00000,  1,  100.0,  150.000,  45.000
5206,  '1',  248.670,  -27.600,  126.570,  -27.600,  1.01000,  0,  298.400,  0.00000,  0.11980,  0.00000,  0.00000,  1.00000,  1,  100.0,  248.670,  74.600
5207,  '1',  248.670,  -27.600,  126.570,  -27.600,  1.01000,  0,  298.400,  0.00000,  0.18090,  0.00000,  0.00000,  1.00000,  1,  100.0,  248.670,  74.600
5208,  '1',  248.670,  -27.600,  126.570,  -27.600,  1.01000,  0,  298.400,  0.00000,  0.10560,  0.00000,  0.00000,  1.00000,  1,  100.0,  248.670,  74.600
5238,  '1',  54.784,  -32.400,  47.930,  -32.400,  1.00000,  0,  270.000,  0.00000,  1.00000,  0.00000,  0.00000,  1.00000,  1,  100.0,  225.000,  67.500
5243,  '1',  36.523,  -21.600,  31.950,  -21.600,  1.00000,  0,  180.000,  0.00000,  1.00000,  0.00000,  0.00000,  1.00000,  1,  100.0,  150.000,  45.000
5262,  '1',  1215.000,  -33.693,  447.120,  -99.630,  1.01000,  0,  1458.00,  0.00000,  0.26310,  0.00000,  0.00000,  1.00000,  1,  100.0,  1215.00,  364.500
5263,  '1',  1215.000,  -67.846,  447.120,  -99.630,  1.01000,  0,  1458.00,  0.00000,  0.16260,  0.00000,  0.00000,  1.00000,  1,  100.0,  1215.00,  364.500
5281,  '1',  230.250,  -10.133,  136.280,  -29.720,  1.00000,  0,  321.280,  0.00000,  0.10660,  0.00000,  0.00000,  1.00000,  1,  100.0,  267.730,  80.320
5282,  '1',  230.250,  -13.742,  136.280,  -29.720,  1.00000,  0,  321.280,  0.00000,  0.23940,  0.00000,  0.00000,  1.00000,  1,  100.0,  267.730,  80.320
5283,  '1',  230.250,  -21.438,  136.280,  -29.720,  1.00000,  0,  321.280,  0.00000,  0.10650,  0.00000,  0.00000,  1.00000,  1,  100.0,  267.730,  80.320
5298,  '1',  66.700,  58.530,  58.530,  -12.760,  1.04000,  0,  138.000,  0.00000,  0.13260,  0.00000,  0.00000,  1.00000,  1,  100.0,  115.000,  34.500
5299,  '1',  66.700,  58.530,  58.530,  -12.760,  1.04000,  0,  138.000,  0.00000,  0.32280,  0.00000,  0.00000,  1.00000,  1,  100.0,  115.000,  34.500
5300,  '1',  66.700,  58.530,  58.530,  -12.760,  1.04000,  0,  138.000,  0.00000,  0.21910,  0.00000,  0.00000,  1.00000,  1,  100.0,  115.000,  34.500
5302,  '1',  463.750,  95.696,  236.050,  -51.480,  1.04000,  0,  556.500,  0.00000,  0.13300,  0.00000,  0.00000,  1.00000,  1,  100.0,  463.750,  139.130
5303,  '1',  463.750,  122.364,  236.050,  -51.480,  1.04000,  0,  556.500,  0.00000,  0.17920,  0.00000,  0.00000,  1.00000,  1,  100.0,  463.750,  139.130
5319,  '1',  226.010,  -12.661,  133.770,  -29.170,  1.01000,  0,  315.360,  0.00000,  0.25070,  0.00000,  0.00000,  1.00000,  1,  100.0,  262.800,  78.840
5320,  '1',  226.010,  -12.879,  133.770,  -29.170,  1.01000,  0,  315.360,  0.00000,  0.28140,  0.00000,  0.00000,  1.00000,  1,  100.0,  262.800,  78.840
5321,  '1',  226.010,  -13.902,  133.770,  -29.170,  1.01000,  0,  315.360,  0.00000,  0.12810,  0.00000,  0.00000,  1.00000,  1,  100.0,  262.800,  78.840
5324,  '1',  284.070,  78.147,  144.590,  -31.530,  1.04000,  0,  340.880,  0.00000,  0.21670,  0.00000,  0.00000,  1.00000,  1,  100.0,  284.070,  85.220
5325,  '1',  284.070,  80.199,  144.590,  -31.530,  1.04000,  0,  340.880,  0.00000,  0.15030,  0.00000,  0.00000,  1.00000,  1,  100.0,  284.070,  85.220
5326,  '1',  284.070,  144.590,  144.590,  -31.530,  1.04000,  0,  340.880,  0.00000,  0.18810,  0.00000,  0.00000,  1.00000,  1,  100.0,  284.070,  85.220
5343,  '1',  59.132,  28.599,  79.667,  -3.430,  1.04000,  0,  84.000,  0.00000,  0.24140,  0.00000,  0.00000,  1.00000,  1,  100.0,  207.500,  0.000
5360,  '1',  627.646,  14.940,  469.730,  -122.980,  1.01000,  0,  1209.60,  0.00000,  0.25510,  0.00000,  0.00000,  1.00000,  1,  100.0,  1008.00,  302.400
5364,  '1',  213.330,  -23.680,  108.590,  -23.680,  1.00000,  0,  256.000,  0.00000,  0.13030,  0.00000,  0.00000,  1.00000,  1,  100.0,  213.330,  64.000
5365,  '1',  213.330,  -23.680,  108.590,  -23.680,  1.00000,  0,  256.000,  0.00000,  0.11650,  0.00000,  0.00000,  1.00000,  1,  100.0,  213.330,  64.000
5366,  '1',  213.330,  -23.680,  108.590,  -23.680,  1.00000,  0,  256.000,  0.00000,  0.15490,  0.00000,  0.00000,  1.00000,  1,  100.0,  213.330,  64.000
5367,  '1',  213.330,  -23.680,  108.590,  -23.680,  1.00000,  0,  256.000,  0.00000,  0.10020,  0.00000,  0.00000,  1.00000,  1,  100.0,  213.330,  64.000
5368,  '1',  213.330,  -23.680,  108.590,  -23.680,  1.00000,  0,  256.000,  0.00000,  0.36180,  0.00000,  0.00000,  1.00000,  1,  100.0,  213.330,  64.000
5369,  '1',  213.330,  -23.680,  108.590,  -23.680,  1.00000,  0,  256.000,  0.00000,  0.24440,  0.00000,  0.00000,  1.00000,  1,  100.0,  213.330,  64.000
5382,  '1',  209.000,  106.380,  106.380,  -23.200,  1.04000,  0,  250.800,  0.00000,  0.24770,  0.00000,  0.00000,  1.00000,  1,  100.0,  209.000,  62.700
5383,  '1',  209.000,  106.380,  106.380,  -23.200,  1.04000,  0,  250.800,  0.00000,  0.39820,  0.00000,  0.00000,  1.00000,  1,  100.0,  209.000,  62.700
5399,  '1',  40.321,  35.270,  35.270,  -23.850,  1.04000,  0,  198.720,  0.00000,  1.00000,  0.00000,  0.00000,  1.00000,  1,  100.0,  165.600,  49.680
5403,  '1',  0.000,  45.500,  45.500,  -9.920,  1.03000,  0,  107.280,  0.00000,  0.19850,  0.00000,  0.00000,  1.00000,  0,  100.0,  89.400,  26.820
5404,  '1',  0.000,  45.500,  45.500,  -9.920,  1.03000,  0,  107.280,  0.00000,  0.13470,  0.00000,  0.00000,  1.00000,  0,  100.0,  89.400,  26.820
5405,  '1',  0.000,  45.500,  45.500,  -9.920,  1.03000,  0,  107.280,  0.00000,  0.14170,  0.00000,  0.00000,  1.00000,  0,  100.0,  89.400,  26.820
5406,  '1',  0.000,  45.500,  45.500,  -9.920,  1.03000,  0,  107.280,  0.00000,  0.12270,  0.00000,  0.00000,  1.00000,  0,  100.0,  89.400,  26.820
5415,  '1',  87.840,  -13.540,  62.100,  -13.540,  1.00000,  0,  146.400,  0.00000,  0.14030,  0.00000,  0.00000,  1.00000,  1,  100.0,  122.000,  36.600
5416,  '1',  87.840,  -13.540,  62.100,  -13.540,  1.00000,  0,  146.400,  0.00000,  0.26480,  0.00000,  0.00000,  1.00000,  1,  100.0,  122.000,  36.600
5417,  '1',  87.840,  -13.540,  62.100,  -13.540,  1.00000,  0,  146.400,  0.00000,  0.16960,  0.00000,  0.00000,  1.00000,  1,  100.0,  122.000,  36.600
5418,  '1',  85.540,  -13.190,  60.470,  -13.190,  1.00000,  0,  142.560,  0.00000,  0.34000,  0.00000,  0.00000,  1.00000,  1,  100.0,  118.800,  35.640
5419,  '1',  85.540,  -13.190,  60.470,  -13.190,  1.00000,  0,  142.560,  0.00000,  0.16420,  0.00000,  0.00000,  1.00000,  1,  100.0,  118.800,  35.640
5444,  '1',  1655.140,  -223.840,  1026.440,  -223.840,  1.01000,  0,  2419.92,  0.00000,  0.34260,  0.00000,  0.00000,  1.00000,  1,  100.0,  2016.60,  604.980
6006,  '1',  183.180,  48.055,  108.420,  -23.640,  1.04000,  0,  255.600,  0.00000,  0.18770,  0.00000,  0.00000,  1.00000,  1,  100.0,  213.000,  63.900
6007,  '1',  426.000,  77.312,  216.830,  -47.290,  1.04000,  0,  511.200,  0.00000,  0.13420,  0.00000,  0.00000,  1.00000,  1,  100.0,  426.000,  127.800
6008,  '1',  170.560,  42.366,  100.950,  -22.010,  1.04000,  0,  238.000,  0.00000,  0.20160,  0.00000,  0.00000,  1.00000,  1,  100.0,  198.330,  59.500
6009,  '1',  170.560,  26.428,  100.950,  -22.010,  1.04000,  0,  238.000,  0.00000,  0.18430,  0.00000,  0.00000,  1.00000,  1,  100.0,  198.330,  59.500
6010,  '1',  170.560,  35.445,  100.950,  -22.010,  1.04000,  0,  238.000,  0.00000,  0.15620,  0.00000,  0.00000,  1.00000,  1,  100.0,  198.330,  59.500
6042,  '1',  91.249,  31.756,  122.908,  -5.290,  1.04000,  0,  129.600,  0.00000,  0.18770,  0.00000,  0.00000,  1.00000,  1,  100.0,  320.200,  0.000
6048,  '1',  0.000,  0.000,  1.730,  -0.380,  1.04000,  0,  4.080,  0.00000,  0.11720,  0.00000,  0.00000,  1.00000,  0,  100.0,  3.400,  1.020
6049,  '1',  0.000,  4.890,  4.890,  -1.070,  1.04000,  0,  11.520,  0.00000,  0.18260,  0.00000,  0.00000,  1.00000,  0,  100.0,  9.600,  2.880
6050,  '1',  0.000,  0.000,  2.240,  -0.490,  1.04000,  0,  5.280,  0.00000,  0.36280,  0.00000,  0.00000,  1.00000,  0,  100.0,  4.400,  1.320
6052,  '1',  0.000,  29.220,  29.220,  -6.370,  1.04000,  0,  68.880,  0.00000,  0.12090,  0.00000,  0.00000,  1.00000,  0,  100.0,  57.400,  17.220
6069,  '1',  155.980,  29.793,  92.320,  -20.130,  1.03000,  0,  217.640,  0.00000,  0.22480,  0.00000,  0.00000,  1.00000,  1,  100.0,  181.370,  54.410
6070,  '1',  155.980,  13.990,  92.320,  -20.130,  1.03000,  0,  217.640,  0.00000,  0.24660,  0.00000,  0.00000,  1.00000,  1,  100.0,  181.370,  54.410
6071,  '1',  155.980,  38.520,  92.320,  -20.130,  1.03000,  0,  217.640,  0.00000,  0.15280,  0.00000,  0.00000,  1.00000,  1,  100.0,  181.370,  54.410
6072,  '1',  155.980,  16.852,  92.320,  -20.130,  1.03000,  0,  217.640,  0.00000,  0.19250,  0.00000,  0.00000,  1.00000,  1,  100.0,  181.370,  54.410
6073,  '1',  155.980,  22.918,  92.320,  -20.130,  1.03000,  0,  217.640,  0.00000,  0.14260,  0.00000,  0.00000,  1.00000,  1,  100.0,  181.370,  54.410
6074,  '1',  155.980,  22.109,  92.320,  -20.130,  1.03000,  0,  217.640,  0.00000,  0.11150,  0.00000,  0.00000,  1.00000,  1,  100.0,  181.370,  54.410
6078,  '1',  169.000,  -33.568,  262.510,  -68.730,  1.00000,  0,  676.000,  0.00000,  0.28900,  0.00000,  0.00000,  1.00000,  1,  100.0,  563.330,  169.000
6079,  '1',  169.000,  -68.730,  262.510,  -68.730,  1.00000,  0,  676.000,  0.00000,  0.25330,  0.00000,  0.00000,  1.00000,  1,  100.0,  563.330,  169.000
6080,  '1',  169.000,  -52.535,  262.510,  -68.730,  1.00000,  0,  676.000,  0.00000,  0.32510,  0.00000,  0.00000,  1.00000,  1,  100.0,  563.330,  169.000
6087,  '1',  0.000,  0.000,  0.000,  0.000,  1.04000,  0,  6.600,  0.00000,  1.00000,  0.00000,  0.00000,  1.00000,  0,  100.0,  5.500,  1.650
6104,  '1',  0.000,  30.790,  30.790,  -6.720,  1.04000,  0,  72.600,  0.00000,  0.21100,  0.00000,  0.00000,  1.00000,  0,  100.0,  60.500,  18.150
6105,  '1',  0.000,  30.790,  30.790,  -6.720,  1.04000,  0,  72.600,  0.00000,  0.31280,  0.00000,  0.00000,  1.00000,  0,  100.0,  60.500,  18.150
6106,  '1',  87.120,  61.590,  61.590,  -13.430,  1.04000,  0,  145.200,  0.00000,  0.12010,  0.00000,  0.00000,  1.00000,  1,  100.0,  121.000,  36.300
6110,  '1',  342.550,  110.266,  275.220,  -72.050,  1.04000,  0,  708.720,  0.00000,  0.16800,  0.00000,  0.00000,  1.00000,  1,  100.0,  590.600,  177.180
6111,  '1',  383.670,  112.459,  308.260,  -80.700,  1.04000,  0,  793.800,  0.00000,  0.21900,  0.00000,  0.00000,  1.00000,  1,  100.0,  661.500,  198.450
6144,  '1',  0.000,  -0.930,  4.280,  -0.930,  1.03000,  0,  10.080,  0.00000,  0.21910,  0.00000,  0.00000,  1.00000,  0,  100.0,  8.400,  2.520
6145,  '1',  446.000,  37.017,  227.010,  -49.510,  1.03000,  0,  535.200,  0.00000,  0.14770,  0.00000,  0.00000,  1.00000,  1,  100.0,  446.000,  133.800
6146,  '1',  446.000,  37.947,  227.010,  -49.510,  1.03000,  0,  535.200,  0.00000,  0.11950,  0.00000,  0.00000,  1.00000,  1,  100.0,  446.000,  133.800
6147,  '1',  289.849,  34.291,  474.390,  -103.450,  1.03000,  0,  1118.40,  0.00000,  0.10440,  0.00000,  0.00000,  1.00000,  1,  100.0,  932.000,  279.600
6148,  '1',  418.800,  54.291,  367.500,  -80.140,  1.03000,  0,  866.400,  0.00000,  0.23830,  0.00000,  0.00000,  1.00000,  1,  100.0,  722.000,  216.600
6149,  '1',  418.760,  101.974,  367.500,  -80.140,  1.03000,  0,  866.400,  0.00000,  0.12770,  0.00000,  0.00000,  1.00000,  1,  100.0,  722.000,  216.600
6164,  '1',  235.050,  30.579,  119.640,  -26.090,  1.03000,  0,  282.060,  0.00000,  0.30070,  0.00000,  0.00000,  1.00000,  1,  100.0,  235.050,  70.520
6165,  '1',  235.050,  26.840,  119.640,  -26.090,  1.03000,  0,  282.060,  0.00000,  0.18390,  0.00000,  0.00000,  1.00000,  1,  100.0,  235.050,  70.520
6166,  '1',  235.050,  61.350,  119.640,  -26.090,  1.03000,  0,  282.060,  0.00000,  0.25100,  0.00000,  0.00000,  1.00000,  1,  100.0,  235.050,  70.520
6167,  '1',  235.050,  34.089,  119.640,  -26.090,  1.03000,  0,  282.060,  0.00000,  0.13970,  0.00000,  0.00000,  1.00000,  1,  100.0,  235.050,  70.520
6213,  '1',  50.697,  11.960,  68.286,  -2.940,  1.04000,  0,  72.000,  0.00000,  0.33650,  0.00000,  0.00000,  1.00000,  1,  100.0,  177.900,  0.000
6214,  '1',  157.391,  20.426,  212.059,  -9.130,  1.04000,  0,  223.600,  0.00000,  0.21900,  0.00000,  0.00000,  1.00000,  1,  100.0,  552.300,  0.000
6215,  '1',  157.391,  75.384,  212.059,  -9.130,  1.04000,  0,  223.600,  0.00000,  0.20110,  0.00000,  0.00000,  1.00000,  1,  100.0,  552.300,  0.000
6216,  '1',  157.391,  33.919,  212.059,  -9.130,  1.04000,  0,  223.600,  0.00000,  0.37760,  0.00000,  0.00000,  1.00000,  1,  100.0,  552.300,  0.000
6242,  '1',  0.000,  15.725,  31.050,  -6.770,  1.04000,  0,  73.200,  0.00000,  0.14010,  0.00000,  0.00000,  1.00000,  0,  100.0,  61.000,  18.300
6243,  '1',  183.000,  66.379,  93.150,  -20.310,  1.04000,  0,  219.600,  0.00000,  0.28800,  0.00000,  0.00000,  1.00000,  1,  100.0,  183.000,  54.900
6244,  '1',  298.000,  79.938,  151.680,  -33.080,  1.04000,  0,  357.600,  0.00000,  0.12500,  0.00000,  0.00000,  1.00000,  1,  100.0,  298.000,  89.400
6245,  '1',  298.000,  92.969,  151.680,  -33.080,  1.04000,  0,  357.600,  0.00000,  0.24960,  0.00000,  0.00000,  1.00000,  1,  100.0,  298.000,  89.400
6246,  '1',  298.000,  151.680,  151.680,  -33.080,  1.04000,  0,  357.600,  0.00000,  0.16990,  0.00000,  0.00000,  1.00000,  1,  100.0,  298.000,  89.400
6247,  '1',  183.330,  93.320,  93.320,  -20.350,  1.04000,  0,  220.000,  0.00000,  0.11730,  0.00000,  0.00000,  1.00000,  1,  100.0,  183.330,  55.000
6248,  '1',  183.330,  73.431,  93.320,  -20.350,  1.04000,  0,  220.000,  0.00000,  0.27550,  0.00000,  0.00000,  1.00000,  1,  100.0,  183.330,  55.000
6249,  '1',  183.330,  50.771,  93.320,  -20.350,  1.04000,  0,  220.000,  0.00000,  0.17480,  0.00000,  0.00000,  1.00000,  1,  100.0,  183.330,  55.000
6257,  '1',  166.840,  -21.530,  98.750,  -21.530,  1.02000,  0,  232.800,  0.00000,  0.15520,  0.00000,  0.00000,  1.00000,  1,  100.0,  194.000,  58.200
6258,  '1',  166.840,  -21.530,  98.750,  -21.530,  1.02000,  0,  232.800,  0.00000,  0.26310,  0.00000,  0.00000,  1.00000,  1,  100.0,  194.000,  58.200
6259,  '1',  0.000,  0.000,  26.160,  -5.710,  1.02000,  0,  61.680,  0.00000,  0.14750,  0.00000,  0.00000,  1.00000,  0,  100.0,  51.400,  15.420
6260,  '1',  257.000,  -28.530,  130.810,  -28.530,  1.02000,  0,  308.400,  0.00000,  0.11970,  0.00000,  0.00000,  1.00000,  1,  100.0,  257.000,  77.100
6295,  '1',  177.360,  -22.890,  104.970,  -22.890,  1.02000,  0,  247.480,  0.00000,  0.21970,  0.00000,  0.00000,  1.00000,  1,  100.0,  206.230,  61.870
6296,  '1',  177.360,  -22.890,  104.970,  -22.890,  1.02000,  0,  247.480,  0.00000,  0.25670,  0.00000,  0.00000,  1.00000,  1,  100.0,  206.230,  61.870
6297,  '1',  177.360,  -22.890,  104.970,  -22.890,  1.02000,  0,  247.480,  0.00000,  0.14170,  0.00000,  0.00000,  1.00000,  1,  100.0,  206.230,  61.900
6301,  '1',  0.000,  0.000,  1.630,  -0.360,  1.00000,  0,  3.840,  0.00000,  0.26290,  0.00000,  0.00000,  1.00000,  0,  100.0,  3.200,  0.960
6302,  '1',  247.250,  -27.440,  125.850,  -27.440,  1.00000,  0,  296.700,  0.00000,  0.25960,  0.00000,  0.00000,  1.00000,  1,  100.0,  247.250,  74.180
6303,  '1',  247.250,  -27.440,  125.850,  -27.440,  1.00000,  0,  296.700,  0.00000,  0.27270,  0.00000,  0.00000,  1.00000,  1,  100.0,  247.250,  74.180
6304,  '1',  247.250,  -27.440,  125.850,  -27.440,  1.00000,  0,  296.700,  0.00000,  0.11710,  0.00000,  0.00000,  1.00000,  1,  100.0,  247.250,  74.180
6305,  '1',  247.250,  -27.440,  125.850,  -27.440,  1.00000,  0,  296.700,  0.00000,  0.12770,  0.00000,  0.00000,  1.00000,  1,  100.0,  247.250,  74.180
6349,  '1',  726.000,  369.540,  369.540,  -80.580,  1.04000,  0,  871.200,  0.00000,  0.16290,  0.00000,  0.00000,  1.00000,  1,  100.0,  726.000,  217.800
7005,  '1',  140.180,  35.127,  82.970,  -18.090,  1.04000,  0,  195.600,  0.00000,  0.13000,  0.00000,  0.00000,  1.00000,  1,  100.0,  163.000,  48.900
7006,  '1',  140.180,  61.967,  82.970,  -18.090,  1.04000,  0,  195.600,  0.00000,  0.19150,  0.00000,  0.00000,  1.00000,  1,  100.0,  163.000,  48.900
7007,  '1',  140.180,  40.766,  82.970,  -18.090,  1.04000,  0,  195.600,  0.00000,  0.34300,  0.00000,  0.00000,  1.00000,  1,  100.0,  163.000,  48.900
7008,  '1',  140.180,  38.273,  82.970,  -18.090,  1.04000,  0,  195.600,  0.00000,  0.21570,  0.00000,  0.00000,  1.00000,  1,  100.0,  163.000,  48.900
7009,  '1',  140.180,  34.600,  82.970,  -18.090,  1.04000,  0,  195.600,  0.00000,  0.13060,  0.00000,  0.00000,  1.00000,  1,  100.0,  163.000,  48.900
7045,  '1',  162.070,  95.920,  95.920,  -20.920,  1.03000,  0,  226.140,  0.00000,  0.12400,  0.00000,  0.00000,  1.00000,  1,  100.0,  188.450,  56.530
7046,  '1',  162.070,  95.920,  95.920,  -20.920,  1.03000,  0,  226.140,  0.00000,  0.10650,  0.00000,  0.00000,  1.00000,  1,  100.0,  188.450,  56.530
7061,  '1',  66.640,  49.222,  58.480,  -12.750,  1.00000,  0,  137.880,  0.00000,  0.12410,  0.00000,  0.00000,  1.00000,  1,  100.0,  114.900,  34.470
7062,  '1',  66.640,  53.744,  58.480,  -12.750,  1.00000,  0,  137.880,  0.00000,  0.19500,  0.00000,  0.00000,  1.00000,  1,  100.0,  114.900,  34.470
7063,  '1',  66.640,  49.618,  58.480,  -12.750,  1.00000,  0,  137.880,  0.00000,  0.15790,  0.00000,  0.00000,  1.00000,  1,  100.0,  114.900,  34.470
7064,  '1',  66.640,  58.480,  58.480,  -12.750,  1.00000,  0,  137.880,  0.00000,  0.22800,  0.00000,  0.00000,  1.00000,  1,  100.0,  114.900,  34.470
7065,  '1',  66.640,  58.480,  58.480,  -12.750,  1.00000,  0,  137.880,  0.00000,  0.22800,  0.00000,  0.00000,  1.00000,  1,  100.0,  114.900,  34.470
7066,  '1',  66.640,  54.985,  58.480,  -12.750,  1.00000,  0,  137.880,  0.00000,  0.34800,  0.00000,  0.00000,  1.00000,  1,  100.0,  114.900,  34.470
7079,  '1',  228.650,  32.310,  116.380,  -25.380,  1.04000,  0,  274.380,  0.00000,  0.13630,  0.00000,  0.00000,  1.00000,  1,  100.0,  228.650,  68.590
7080,  '1',  228.650,  25.857,  116.380,  -25.380,  1.04000,  0,  274.380,  0.00000,  0.17160,  0.00000,  0.00000,  1.00000,  1,  100.0,  228.650,  68.590
7081,  '1',  228.650,  26.461,  116.380,  -25.380,  1.04000,  0,  274.380,  0.00000,  0.24350,  0.00000,  0.00000,  1.00000,  1,  100.0,  228.650,  68.590
7082,  '1',  228.650,  31.160,  116.380,  -25.380,  1.04000,  0,  274.380,  0.00000,  0.26430,  0.00000,  0.00000,  1.00000,  1,  100.0,  228.650,  68.590
7098,  '1',  2603.327,  1486.057,  498.380,  -111.050,  1.00000,  0,  3600.00,  0.00000,  0.28190,  0.00000,  0.00000,  1.00000,  1,  100.0,  1354.30,  406.290
7099,  '1',  1354.300,  498.380,  498.380,  -111.050,  1.00000,  0,  1625.16,  0.00000,  0.27430,  0.00000,  0.00000,  1.00000,  1,  100.0,  1354.30,  406.290
7107,  '1',  129.000,  76.350,  76.350,  -16.650,  1.04000,  0,  180.000,  0.00000,  0.29250,  0.00000,  0.00000,  1.00000,  1,  100.0,  150.000,  45.000
7110,  '1',  196.000,  43.321,  99.760,  -21.760,  1.04000,  0,  235.200,  0.00000,  0.13730,  0.00000,  0.00000,  1.00000,  1,  100.0,  196.000,  58.800
7111,  '1',  196.000,  42.237,  99.760,  -21.760,  1.04000,  0,  235.200,  0.00000,  0.19180,  0.00000,  0.00000,  1.00000,  1,  100.0,  196.000,  58.800
7112,  '1',  196.000,  66.837,  99.760,  -21.760,  1.04000,  0,  235.200,  0.00000,  0.17280,  0.00000,  0.00000,  1.00000,  1,  100.0,  196.000,  58.800
7113,  '1',  196.000,  36.266,  99.760,  -21.760,  1.04000,  0,  235.200,  0.00000,  0.16060,  0.00000,  0.00000,  1.00000,  1,  100.0,  196.000,  58.800
7114,  '1',  196.000,  70.879,  99.760,  -21.760,  1.04000,  0,  235.200,  0.00000,  0.20370,  0.00000,  0.00000,  1.00000,  1,  100.0,  196.000,  58.800
7115,  '1',  196.000,  71.241,  99.760,  -21.760,  1.04000,  0,  235.200,  0.00000,  0.17540,  0.00000,  0.00000,  1.00000,  1,  100.0,  196.000,  58.800
...
 0 /End of Generator data, Begin Branch data
1012,  1033,  '99',  0.20274,  0.98023,  0.00000,  0.00,  0.00,  0.00,  0.00000,  0.000,  0.00000,  0.00000,  0.00000,  0.00000,  1
1012,  1046,  '99',  0.11811,  0.48056,  0.00000,  0.00,  0.00,  0.00,  0.00000,  0.000,  0.00000,  0.00000,  0.00000,  0.00000,  1
1012,  -3051,  '1',  0.05710,  0.24977,  0.03804,  149.00,  0.00,  0.00,  0.00000,  0.000,  0.00000,  0.00000,  0.00000,  0.00000,  1
1033,  1046,  '99',  0.13290,  0.68305,  0.00000,  0.00,  0.00,  0.00,  0.00000,  0.000,  0.00000,  0.00000,  0.00000,  0.00000,  1
1033,  1048,  '99',  0.29948,  1.75023,  0.00000,  0.00,  0.00,  0.00,  0.00000,  0.000,  0.00000,  0.00000,  0.00000,  0.00000,  1
1033,  1049,  '99',  0.44979,  3.14644,  0.00000,  0.00,  0.00,  0.00,  0.00000,  0.000,  0.00000,  0.00000,  0.00000,  0.00000,  1
1033,  1053,  '99',  0.34257,  2.35127,  0.00000,  0.00,  0.00,  0.00,  0.00000,  0.000,  0.00000,  0.00000,  0.00000,  0.00000,  1
1033,  1081,  '99',  0.00299,  0.03089,  0.00000,  0.00,  0.00,  0.00,  0.00000,  0.000,  0.00000,  0.00000,  0.00000,  0.00000,  1
1033,  3048,  '99',  0.21493,  3.55420,  0.00000,  0.00,  0.00,  0.00,  0.00000,  0.000,  0.00000,  0.00000,  0.00000,  0.00000,  1
1033,  3050,  '1',  0.01390,  0.13600,  0.26200,  647.00,  0.00,  0.00,  0.00000,  0.000,  0.00000,  0.00000,  0.00000,  0.00000,  1
1046,  3009,  '1',  0.05654,  0.23454,  0.03980,  149.00,  0.00,  0.00,  0.00000,  0.000,  0.00000,  0.00000,  0.00000,  0.00000,  1
1048,  1049,  '99',  0.00230,  0.33501,  0.00000,  0.00,  0.00,  0.00,  0.00000,  0.000,  0.00000,  0.00000,  0.00000,  0.00000,  1
1048,  1053,  '99',  0.00240,  0.25044,  0.00000,  0.00,  0.00,  0.00,  0.00000,  0.000,  0.00000,  0.00000,  0.00000,  0.00000,  1
1048,  1072,  '99',  0.80923,  4.35640,  0.00000,  0.00,  0.00,  0.00,  0.00000,  0.000,  0.00000,  0.00000,  0.00000,  0.00000,  1
1048,  1076,  '99',  0.38281,  2.52555,  0.00000,  0.00,  0.00,  0.00,  0.00000,  0.000,  0.00000,  0.00000,  0.00000,  0.00000,  1
1048,  1081,  '99',  0.48189,  3.17755,  0.00000,  0.00,  0.00,  0.00,  0.00000,  0.000,  0.00000,  0.00000,  0.00000,  0.00000,  1
1048,  3048,  '99',  0.33536,  2.09245,  0.00000,  0.00,  0.00,  0.00,  0.00000,  0.000,  0.00000,  0.00000,  0.00000,  0.00000,  1
1049,  1053,  '99',  -0.00803,  0.44823,  0.00000,  0.00,  0.00,  0.00,  0.00000,  0.000,  0.00000,  0.00000,  0.00000,  0.00000,  1
1049,  1076,  '99',  0.56076,  4.53782,  0.00000,  0.00,  0.00,  0.00,  0.00000,  0.000,  0.00000,  0.00000,  0.00000,  0.00000,  1
1049,  3048,  '99',  0.49715,  3.76055,  0.00000,  0.00,  0.00,  0.00,  0.00000,  0.000,  0.00000,  0.00000,  0.00000,  0.00000,  1
1053,  1076,  '99',  0.42832,  3.39119,  0.00000,  0.00,  0.00,  0.00,  0.00000,  0.000,  0.00000,  0.00000,  0.00000,  0.00000,  1
1053,  1081,  '99',  0.00298,  0.02979,  0.00000,  0.00,  0.00,  0.00,  0.00000,  0.000,  0.00000,  0.00000,  0.00000,  0.00000,  1
1053,  3048,  '99',  0.37920,  2.81025,  0.00000,  0.00,  0.00,  0.00,  0.00000,  0.000,  0.00000,  0.00000,  0.00000,  0.00000,  1
1072,  1073,  '99',  0.13332,  1.22251,  0.00000,  0.00,  0.00,  0.00,  0.00000,  0.000,  0.00000,  0.00000,  0.00000,  0.00000,  1
1072,  1074,  '99',  0.06462,  1.17164,  0.00000,  0.00,  0.00,  0.00,  0.00000,  0.000,  0.00000,  0.00000,  0.00000,  0.00000,  1
1072,  1075,  '99',  0.04351,  0.93781,  0.00000,  0.00,  0.00,  0.00,  0.00000,  0.000,  0.00000,  0.00000,  0.00000,  0.00000,  1
1072,  1076,  '99',  0.01743,  0.46457,  0.00000,  0.00,  0.00,  0.00,  0.00000,  0.000,  0.00000,  0.00000,  0.00000,  0.00000,  1
1072,  1077,  '99',  0.07049,  1.13337,  0.00000,  0.00,  0.00,  0.00,  0.00000,  0.000,  0.00000,  0.00000,  0.00000,  0.00000,  1
1072,  1081,  '99',  0.02271,  0.61093,  0.00000,  0.00,  0.00,  0.00,  0.00000,  0.000,  0.00000,  0.00000,  0.00000,  0.00000,  1
1072,  3048,  '99',  0.01799,  0.45889,  0.00000,  0.00,  0.00,  0.00,  0.00000,  0.000,  0.00000,  0.00000,  0.00000,  0.00000,  1
1073,  1074,  '99',  0.16614,  1.78168,  0.00000,  0.00,  0.00,  0.00,  0.00000,  0.000,  0.00000,  0.00000,  0.00000,  0.00000,  1
1073,  1075,  '99',  0.12047,  1.42659,  0.00000,  0.00,  0.00,  0.00,  0.00000,  0.000,  0.00000,  0.00000,  0.00000,  0.00000,  1
1073,  1076,  '99',  0.05340,  0.70693,  0.00000,  0.00,  0.00,  0.00,  0.00000,  0.000,  0.00000,  0.00000,  0.00000,  0.00000,  1
1073,  1077,  '99',  0.17288,  1.72302,  0.00000,  0.00,  0.00,  0.00,  0.00000,  0.000,  0.00000,  0.00000,  0.00000,  0.00000,  1
1073,  1081,  '99',  0.06989,  0.92966,  0.00000,  0.00,  0.00,  0.00,  0.00000,  0.000,  0.00000,  0.00000,  0.00000,  0.00000,  1
1073,  3048,  '99',  0.05392,  0.69825,  0.00000,  0.00,  0.00,  0.00,  0.00000,  0.000,  0.00000,  0.00000,  0.00000,  0.00000,  1
1074,  1075,  '99',  0.04196,  1.36543,  0.00000,  0.00,  0.00,  0.00,  0.00000,  0.000,  0.00000,  0.00000,  0.00000,  0.00000,  1
1074,  1076,  '99',  0.01479,  0.67630,  0.00000,  0.00,  0.00,  0.00,  0.00000,  0.000,  0.00000,  0.00000,  0.00000,  0.00000,  1
1074,  1077,  '99',  0.07676,  1.65055,  0.00000,  0.00,  0.00,  0.00,  0.00000,  0.000,  0.00000,  0.00000,  0.00000,  0.00000,  1
1074,  1081,  '99',  0.01913,  0.88936,  0.00000,  0.00,  0.00,  0.00,  0.00000,  0.000,  0.00000,  0.00000,  0.00000,  0.00000,  1
1074,  3048,  '99',  0.01573,  0.66806,  0.00000,  0.00,  0.00,  0.00,  0.00000,  0.000,  0.00000,  0.00000,  0.00000,  0.00000,  1
1075,  1076,  '99',  0.00711,  0.54118,  0.00000,  0.00,  0.00,  0.00,  0.00000,  0.000,  0.00000,  0.00000,  0.00000,  0.00000,  1
1075,  1077,  '99',  0.04988,  1.32106,  0.00000,  0.00,  0.00,  0.00,  0.00000,  0.000,  0.00000,  0.00000,  0.00000,  0.00000,  1
1075,  1081,  '99',  0.00909,  0.71167,  0.00000,  0.00,  0.00,  0.00,  0.00000,  0.000,  0.00000,  0.00000,  0.00000,  0.00000,  1
1075,  3048,  '99',  0.00792,  0.53459,  0.00000,  0.00,  0.00,  0.00,  0.00000,  0.000,  0.00000,  0.00000,  0.00000,  0.00000,  1
1076,  1077,  '99',  0.01891,  0.65437,  0.00000,  0.00,  0.00,  0.00,  0.00000,  0.000,  0.00000,  0.00000,  0.00000,  0.00000,  1
1076,  1081,  '99',  0.00138,  0.35244,  0.00000,  0.00,  0.00,  0.00,  0.00000,  0.000,  0.00000,  0.00000,  0.00000,  0.00000,  1
1076,  3048,  '99',  0.00158,  0.26475,  0.00000,  0.00,  0.00,  0.00,  0.00000,  0.000,  0.00000,  0.00000,  0.00000,  0.00000,  1
1077,  1081,  '99',  0.02455,  0.86052,  0.00000,  0.00,  0.00,  0.00,  0.00000,  0.000,  0.00000,  0.00000,  0.00000,  0.00000,  1
1077,  3048,  '99',  0.01976,  0.64638,  0.00000,  0.00,  0.00,  0.00,  0.00000,  0.000,  0.00000,  0.00000,  0.00000,  0.00000,  1
1081,  3008,  '99',  1.09344,  4.66749,  0.00000,  0.00,  0.00,  0.00,  0.00000,  0.000,  0.00000,  0.00000,  0.00000,  0.00000,  1
1081,  3018,  '99',  0.05249,  0.52283,  0.00000,  0.00,  0.00,  0.00,  0.00000,  0.000,  0.00000,  0.00000,  0.00000,  0.00000,  1
1081,  3019,  '99',  0.48572,  3.41310,  0.00000,  0.00,  0.00,  0.00,  0.00000,  0.000,  0.00000,  0.00000,  0.00000,  0.00000,  1
1081,  3028,  '99',  0.31622,  2.95352,  0.00000,  0.00,  0.00,  0.00,  0.00000,  0.000,  0.00000,  0.00000,  0.00000,  0.00000,  1
1081,  3045,  '99',  0.03284,  0.76310,  0.00000,  0.00,  0.00,  0.00,  0.00000,  0.000,  0.00000,  0.00000,  0.00000,  0.00000,  1
1081,  3048,  '99',  0.00960,  0.15202,  0.00000,  0.00,  0.00,  0.00,  0.00000,  0.000,  0.00000,  0.00000,  0.00000,  0.00000,  1
1081,  5399,  '99',  0.07422,  1.52834,  0.00000,  0.00,  0.00,  0.00,  0.00000,  0.000,  0.00000,  0.00000,  0.00000,  0.00000,  1
2004,  2005,  '99',  -0.00119,  0.09476,  0.00000,  0.00,  0.00,  0.00,  0.00000,  0.000,  0.00000,  0.00000,  0.00000,  0.00000,  1
2004,  2006,  '99',  -0.00271,  0.14808,  0.00000,  0.00,  0.00,  0.00,  0.00000,  0.000,  0.00000,  0.00000,  0.00000,  0.00000,  1
2004,  2024,  '99',  0.00861,  0.54332,  0.00000,  0.00,  0.00,  0.00,  0.00000,  0.000,  0.00000,  0.00000,  0.00000,  0.00000,  1
2004,  2103,  '99',  0.00058,  0.14683,  0.00000,  0.00,  0.00,  0.00,  0.00000,  0.000,  0.00000,  0.00000,  0.00000,  0.00000,  1
2004,  2104,  '99',  0.00042,  0.19233,  0.00000,  0.00,  0.00,  0.00,  0.00000,  0.000,  0.00000,  0.00000,  0.00000,  0.00000,  1
2004,  2105,  '99',  0.00304,  0.30353,  0.00000,  0.00,  0.00,  0.00,  0.00000,  0.000,  0.00000,  0.00000,  0.00000,  0.00000,  1
2004,  2115,  '99',  0.04158,  1.18156,  0.00000,  0.00,  0.00,  0.00,  0.00000,  0.000,  0.00000,  0.00000,  0.00000,  0.00000,  1
2004,  2116,  '99',  0.01763,  0.61590,  0.00000,  0.00,  0.00,  0.00,  0.00000,  0.000,  0.00000,  0.00000,  0.00000,  0.00000,  1
2004,  2117,  '99',  0.03395,  1.36841,  0.00000,  0.00,  0.00,  0.00,  0.00000,  0.000,  0.00000,  0.00000,  0.00000,  0.00000,  1
2004,  2118,  '99',  0.04263,  1.51532,  0.00000,  0.00,  0.00,  0.00,  0.00000,  0.000,  0.00000,  0.00000,  0.00000,  0.00000,  1
2004,  2119,  '99',  0.02181,  0.74965,  0.00000,  0.00,  0.00,  0.00,  0.00000,  0.000,  0.00000,  0.00000,  0.00000,  0.00000,  1
2004,  2120,  '99',  0.04359,  1.45624,  0.00000,  0.00,  0.00,  0.00,  0.00000,  0.000,  0.00000,  0.00000,  0.00000,  0.00000,  1
2004,  5021,  '99',  0.22735,  1.92843,  0.00000,  0.00,  0.00,  0.00,  0.00000,  0.000,  0.00000,  0.00000,  0.00000,  0.00000,  1
2004,  5037,  '99',  0.22936,  4.34897,  0.00000,  0.00,  0.00,  0.00,  0.00000,  0.000,  0.00000,  0.00000,  0.00000,  0.00000,  1
2004,  5038,  '99',  0.22784,  4.48880,  0.00000,  0.00,  0.00,  0.00,  0.00000,  0.000,  0.00000,  0.00000,  0.00000,  0.00000,  1
2004,  5039,  '99',  0.10838,  1.97403,  0.00000,  0.00,  0.00,  0.00,  0.00000,  0.000,  0.00000,  0.00000,  0.00000,  0.00000,  1
2004,  5041,  '99',  0.24014,  4.08331,  0.00000,  0.00,  0.00,  0.00,  0.00000,  0.000,  0.00000,  0.00000,  0.00000,  0.00000,  1
2004,  5042,  '99',  0.24085,  4.81085,  0.00000,  0.00,  0.00,  0.00,  0.00000,  0.000,  0.00000,  0.00000,  0.00000,  0.00000,  1
2004,  5047,  '99',  0.23369,  2.38855,  0.00000,  0.00,  0.00,  0.00,  0.00000,  0.000,  0.00000,  0.00000,  0.00000,  0.00000,  1
...